<?xml version="1.0" encoding="UTF-8"?>
<tlLogics xmlns:xsi="http://www.w3.org/2001/XMLSchema-instance" xsi:noNamespaceSchemaLocation="http://sumo.dlr.de/xsd/tllogic_file.xsd">
    <tlLogic id="center" type="static" programID="0" offset="0">
        <phase duration="5" state="GGrrGGrr"/>
        <phase duration="5" state="yyrryyrr"/>
        <phase duration="5" state="rrGGrrGG"/>
        <phase duration="5" state="rryyrryy"/>
    </tlLogic>
</tlLogics>