<?xml version="1.0" encoding="UTF-8"?>

<!-- generated on 2025-06-09 10:21:12 by Eclipse SUMO netconvert Version 1.23.1
<netconvertConfiguration xmlns:xsi="http://www.w3.org/2001/XMLSchema-instance" xsi:noNamespaceSchemaLocation="http://sumo.dlr.de/xsd/netconvertConfiguration.xsd">

    <input>
        <node-files value="intersection.nod.xml"/>
        <edge-files value="intersection.edg.xml"/>
        <connection-files value="intersection.con.xml"/>
        <tllogic-files value="intersection.tll.xml"/>
    </input>

    <output>
        <output-file value="intersection.net.xml"/>
    </output>

    <junctions>
        <no-turnarounds value="true"/>
    </junctions>

</netconvertConfiguration>
-->

<net version="1.20" junctionCornerDetail="5" limitTurnSpeed="5.50" xmlns:xsi="http://www.w3.org/2001/XMLSchema-instance" xsi:noNamespaceSchemaLocation="http://sumo.dlr.de/xsd/net_file.xsd">

    <location netOffset="100.00,100.00" convBoundary="0.00,0.00,200.00,200.00" origBoundary="-100.00,-100.00,100.00,100.00" projParameter="!"/>

    <edge id=":center_0" function="internal">
        <lane id=":center_0_0" index="0" allow="passenger" speed="6.51" length="9.03" shape="98.40,107.20 98.05,104.75 97.00,103.00 95.25,101.95 92.80,101.60"/>
    </edge>
    <edge id=":center_1" function="internal">
        <lane id=":center_1_0" index="0" allow="passenger" speed="13.89" length="14.40" shape="98.40,107.20 98.40,92.80"/>
    </edge>
    <edge id=":center_2" function="internal">
        <lane id=":center_2_0" index="0" allow="passenger" speed="6.51" length="9.03" shape="107.20,101.60 104.75,101.95 103.00,103.00 101.95,104.75 101.60,107.20"/>
    </edge>
    <edge id=":center_3" function="internal">
        <lane id=":center_3_0" index="0" allow="passenger" speed="13.89" length="14.40" shape="107.20,101.60 92.80,101.60"/>
    </edge>
    <edge id=":center_4" function="internal">
        <lane id=":center_4_0" index="0" allow="passenger" speed="6.51" length="9.03" shape="101.60,92.80 101.95,95.25 103.00,97.00 104.75,98.05 107.20,98.40"/>
    </edge>
    <edge id=":center_5" function="internal">
        <lane id=":center_5_0" index="0" allow="passenger" speed="13.89" length="14.40" shape="101.60,92.80 101.60,107.20"/>
    </edge>
    <edge id=":center_6" function="internal">
        <lane id=":center_6_0" index="0" allow="passenger" speed="6.51" length="9.03" shape="92.80,98.40 95.25,98.05 97.00,97.00 98.05,95.25 98.40,92.80"/>
    </edge>
    <edge id=":center_7" function="internal">
        <lane id=":center_7_0" index="0" allow="passenger" speed="13.89" length="14.40" shape="92.80,98.40 107.20,98.40"/>
    </edge>

    <edge id="east_in" from="node_out_east" to="center" priority="78" length="100.00">
        <lane id="east_in_0" index="0" allow="passenger" speed="13.89" length="100.00" shape="200.00,101.60 107.20,101.60"/>
    </edge>
    <edge id="east_out" from="center" to="node_out_east" priority="78" length="100.00">
        <lane id="east_out_0" index="0" allow="passenger" speed="13.89" length="100.00" shape="107.20,98.40 200.00,98.40"/>
    </edge>
    <edge id="north_in" from="node_out_north" to="center" priority="78" length="100.00">
        <lane id="north_in_0" index="0" allow="passenger" speed="13.89" length="100.00" shape="98.40,200.00 98.40,107.20"/>
    </edge>
    <edge id="north_out" from="center" to="node_out_north" priority="78" length="100.00">
        <lane id="north_out_0" index="0" allow="passenger" speed="13.89" length="100.00" shape="101.60,107.20 101.60,200.00"/>
    </edge>
    <edge id="south_in" from="node_out_south" to="center" priority="78" length="100.00">
        <lane id="south_in_0" index="0" allow="passenger" speed="13.89" length="100.00" shape="101.60,0.00 101.60,92.80"/>
    </edge>
    <edge id="south_out" from="center" to="node_out_south" priority="78" length="100.00">
        <lane id="south_out_0" index="0" allow="passenger" speed="13.89" length="100.00" shape="98.40,92.80 98.40,0.00"/>
    </edge>
    <edge id="west_in" from="node_out_west" to="center" priority="78" length="100.00">
        <lane id="west_in_0" index="0" allow="passenger" speed="13.89" length="100.00" shape="0.00,98.40 92.80,98.40"/>
    </edge>
    <edge id="west_out" from="center" to="node_out_west" priority="78" length="100.00">
        <lane id="west_out_0" index="0" allow="passenger" speed="13.89" length="100.00" shape="92.80,101.60 0.00,101.60"/>
    </edge>

    <tlLogic id="center" type="static" programID="0" offset="0">
        <phase duration="5"  state="GGrrGGrr"/>
        <phase duration="5"  state="yyrryyrr"/>
        <phase duration="5"  state="rrGGrrGG"/>
        <phase duration="5"  state="rryyrryy"/>
    </tlLogic>

    <junction id="center" type="traffic_light" x="100.00" y="100.00" incLanes="north_in_0 east_in_0 south_in_0 west_in_0" intLanes=":center_0_0 :center_1_0 :center_2_0 :center_3_0 :center_4_0 :center_5_0 :center_6_0 :center_7_0" shape="96.80,107.20 103.20,107.20 103.64,104.98 104.20,104.20 104.98,103.64 105.98,103.31 107.20,103.20 107.20,96.80 104.98,96.36 104.20,95.80 103.64,95.02 103.31,94.02 103.20,92.80 96.80,92.80 96.36,95.02 95.80,95.80 95.02,96.36 94.02,96.69 92.80,96.80 92.80,103.20 95.02,103.64 95.80,104.20 96.36,104.98 96.69,105.98">
        <request index="0" response="00000000" foes="00001000" cont="0"/>
        <request index="1" response="00000000" foes="11001000" cont="0"/>
        <request index="2" response="00100000" foes="00100000" cont="0"/>
        <request index="3" response="00100011" foes="00100011" cont="0"/>
        <request index="4" response="00000000" foes="10000000" cont="0"/>
        <request index="5" response="00000000" foes="10001100" cont="0"/>
        <request index="6" response="00000010" foes="00000010" cont="0"/>
        <request index="7" response="00110010" foes="00110010" cont="0"/>
    </junction>
    <junction id="node_out_east" type="dead_end" x="200.00" y="100.00" incLanes="east_out_0" intLanes="" shape="200.00,100.00 200.00,96.80 200.00,100.00"/>
    <junction id="node_out_north" type="dead_end" x="100.00" y="200.00" incLanes="north_out_0" intLanes="" shape="100.00,200.00 103.20,200.00 100.00,200.00"/>
    <junction id="node_out_south" type="dead_end" x="100.00" y="0.00" incLanes="south_out_0" intLanes="" shape="100.00,0.00 96.80,0.00 100.00,0.00"/>
    <junction id="node_out_west" type="dead_end" x="0.00" y="100.00" incLanes="west_out_0" intLanes="" shape="0.00,100.00 0.00,103.20 0.00,100.00"/>

    <connection from="east_in" to="north_out" fromLane="0" toLane="0" via=":center_2_0" tl="center" linkIndex="2" dir="r" state="o"/>
    <connection from="east_in" to="west_out" fromLane="0" toLane="0" via=":center_3_0" tl="center" linkIndex="3" dir="s" state="o"/>
    <connection from="north_in" to="west_out" fromLane="0" toLane="0" via=":center_0_0" tl="center" linkIndex="0" dir="r" state="O"/>
    <connection from="north_in" to="south_out" fromLane="0" toLane="0" via=":center_1_0" tl="center" linkIndex="1" dir="s" state="O"/>
    <connection from="south_in" to="east_out" fromLane="0" toLane="0" via=":center_4_0" tl="center" linkIndex="4" dir="r" state="O"/>
    <connection from="south_in" to="north_out" fromLane="0" toLane="0" via=":center_5_0" tl="center" linkIndex="5" dir="s" state="O"/>
    <connection from="west_in" to="south_out" fromLane="0" toLane="0" via=":center_6_0" tl="center" linkIndex="6" dir="r" state="o"/>
    <connection from="west_in" to="east_out" fromLane="0" toLane="0" via=":center_7_0" tl="center" linkIndex="7" dir="s" state="o"/>

    <connection from=":center_0" to="west_out" fromLane="0" toLane="0" dir="r" state="M"/>
    <connection from=":center_1" to="south_out" fromLane="0" toLane="0" dir="s" state="M"/>
    <connection from=":center_2" to="north_out" fromLane="0" toLane="0" dir="r" state="M"/>
    <connection from=":center_3" to="west_out" fromLane="0" toLane="0" dir="s" state="M"/>
    <connection from=":center_4" to="east_out" fromLane="0" toLane="0" dir="r" state="M"/>
    <connection from=":center_5" to="north_out" fromLane="0" toLane="0" dir="s" state="M"/>
    <connection from=":center_6" to="south_out" fromLane="0" toLane="0" dir="r" state="M"/>
    <connection from=":center_7" to="east_out" fromLane="0" toLane="0" dir="s" state="M"/>

</net>
