<?xml version="1.0" encoding="UTF-8"?>
<nodes xmlns:xsi="http://www.w3.org/2001/XMLSchema-instance" xsi:noNamespaceSchemaLocation="http://sumo.dlr.de/xsd/nodes_file.xsd">
    <node id="center" x="0.0" y="0.0" type="traffic_light"/>
    <node id="node_out_north" x="0.0" y="100.0" type="priority"/>
    <node id="node_out_south" x="0.0" y="-100.0" type="priority"/>
    <node id="node_out_east" x="100.0" y="0.0" type="priority"/>
    <node id="node_out_west" x="-100.0" y="0.0" type="priority"/>
</nodes>