<?xml version="1.0" encoding="UTF-8"?>
<routes xmlns:xsi="http://www.w3.org/2001/XMLSchema-instance" xsi:noNamespaceSchemaLocation="http://sumo.dlr.de/xsd/routes_file.xsd">
    <vType id="car" length="5.0" accel="2.6" decel="4.5" sigma="0.5" maxSpeed="13.89"/>
    <flow id="north_south" type="car" from="north_in" to="south_out" begin="0" end="3600" period="60"/>
    <flow id="north_east" type="car" from="north_in" to="west_out" begin="0" end="3600" period="60"/>

    <flow id="south_north" type="car" from="south_in" to="north_out" begin="0" end="3600" period="60"/>
    <flow id="south_west" type="car" from="south_in" to="east_out" begin="0" end="3600" period="60"/>
</routes>