<routes xmlns:xsi="http://www.w3.org/2001/XMLSchema-instance" xsi:noNamespaceSchemaLocation="http://sumo.dlr.de/xsd/routes_file.xsd">
    <vType id="car" vClass="passenger" length="5.0" maxSpeed="13.89" accel="2.6" decel="4.5"/>
    <route id="north_south" edges="north_in south_out"/>
    <route id="north_east" edges="north_in east_out"/>
    <route id="south_north" edges="south_in north_out"/>
    <route id="south_west" edges="south_in west_out"/>
    <route id="east_west" edges="east_in west_out"/>
    <route id="east_south" edges="east_in south_out"/>
    <route id="west_east" edges="west_in east_out"/>
    <route id="west_north" edges="west_in north_out"/>
    <flow id="flow_north_south" type="car" route="north_south" begin="0" end="3600" probability="0.2"/>
    <flow id="flow_north_east" type="car" route="north_east" begin="0" end="3600" probability="0.2"/>
    <flow id="flow_south_north" type="car" route="south_north" begin="0" end="3600" probability="0.05"/>
    <flow id="flow_south_west" type="car" route="south_west" begin="0" end="3600" probability="0.05"/>
    <flow id="flow_east_west" type="car" route="east_west" begin="0" end="3600" probability="0.05"/>
    <flow id="flow_east_south" type="car" route="east_south" begin="0" end="3600" probability="0.05"/>
    <flow id="flow_west_east" type="car" route="west_east" begin="0" end="3600" probability="0.05"/>
    <flow id="flow_west_north" type="car" route="west_north" begin="0" end="3600" probability="0.05"/>
</routes>